<?xml version="1.0" encoding="UTF-8"?>

<configuration xmlns:xsi="http://www.w3.org/2001/XMLSchema-instance" xsi:noNamespaceSchemaLocation="http://sumo.sf.net/xsd/sumoConfiguration.xsd">
	<input>
		<net-file value="wavetest.net.xml"/>
		<route-files value="wavetest.rou.xml"/>
	</input>
	
	 <time>
        <begin value="0"/>
        <end value="1000"/>
        <step-length value="0.1"/>
    </time>
    
    <gui_only>
        <start value="true"/>
    </gui_only>
    
</configuration>
