<?xml version="1.0" encoding="UTF-8"?>

<!-- generated on Mon Dec 29 17:19:12 2014 by SUMO netconvert Version 0.21.0
<?xml version="1.0" encoding="UTF-8"?>

<configuration xmlns:xsi="http://www.w3.org/2001/XMLSchema-instance" xsi:noNamespaceSchemaLocation="http://sumo-sim.org/xsd/netconvertConfiguration.xsd">

    <input>
        <node-files value="wavetest.nod.xml"/>
        <edge-files value="wavetest.edg.xml"/>
        <connection-files value="wavetest.con.xml"/>
        <type-files value="wavetest.typ.xml"/>
    </input>

    <output>
        <output-file value="wavetest.net.xml"/>
    </output>

    <processing>
        <no-turnarounds value="false"/>
    </processing>

    <report>
        <verbose value="true"/>
    </report>

</configuration>
-->

<net version="0.13" xmlns:xsi="http://www.w3.org/2001/XMLSchema-instance" xsi:noNamespaceSchemaLocation="http://sumo-sim.org/xsd/net_file.xsd">

    <location netOffset="3000.00,0.00" convBoundary="0.00,0.00,6000.00,6000.00" origBoundary="-3000.00,0.00,3000.00,6000.00" projParameter="!"/>

    <edge id=":2_0" function="internal">
        <lane id=":2_0_0" index="0" speed="55.55" length="0.10" shape="3000.00,-4.95 3000.00,-4.95"/>
        <lane id=":2_0_1" index="1" speed="55.55" length="0.10" shape="3000.00,-1.65 3000.00,-1.65"/>
    </edge>
    <edge id=":3_0" function="internal">
        <lane id=":3_0_0" index="0" speed="44.44" length="5.24" shape="6000.05,-4.95 6002.19,-4.64 6003.72,-3.72 6004.64,-2.19 6004.95,-0.05"/>
        <lane id=":3_0_1" index="1" speed="44.44" length="5.24" shape="6000.05,-1.65 6000.75,-1.55 6001.25,-1.25 6001.55,-0.75 6001.65,-0.05"/>
    </edge>
    <edge id=":4_0" function="internal">
        <lane id=":4_0_0" index="0" speed="44.44" length="5.24" shape="6004.95,3000.05 6004.64,3002.19 6003.72,3003.73 6002.19,3004.64 6000.05,3004.95"/>
        <lane id=":4_0_1" index="1" speed="44.44" length="5.24" shape="6001.65,3000.05 6001.55,3000.75 6001.25,3001.25 6000.75,3001.55 6000.05,3001.65"/>
    </edge>
    <edge id=":5_0" function="internal">
        <lane id=":5_0_0" index="0" speed="55.55" length="0.10" shape="3000.00,3004.95 3000.00,3004.95"/>
        <lane id=":5_0_1" index="1" speed="55.55" length="0.10" shape="3000.00,3001.65 3000.00,3001.65"/>
    </edge>
    <edge id=":6_0" function="internal">
        <lane id=":6_0_0" index="0" speed="44.44" length="5.24" shape="6.55,3004.95 5.85,3005.05 5.35,3005.35 5.05,3005.85 4.95,3006.55"/>
        <lane id=":6_0_1" index="1" speed="44.44" length="5.24" shape="6.55,3001.65 4.41,3001.96 2.87,3002.88 1.96,3004.41 1.65,3006.55"/>
    </edge>
    <edge id=":7_0" function="internal">
        <lane id=":7_0_0" index="0" speed="44.44" length="5.24" shape="4.95,5993.45 5.05,5994.15 5.35,5994.65 5.85,5994.95 6.55,5995.05"/>
        <lane id=":7_0_1" index="1" speed="44.44" length="5.24" shape="1.65,5993.45 1.96,5995.59 2.87,5997.12 4.41,5998.04 6.55,5998.35"/>
    </edge>
    <edge id=":8_0" function="internal">
        <lane id=":8_0_0" index="0" speed="55.55" length="0.10" shape="3000.00,5995.05 3000.00,5995.05"/>
        <lane id=":8_0_1" index="1" speed="55.55" length="0.10" shape="3000.00,5998.35 3000.00,5998.35"/>
    </edge>

    <edge id="D1" from="1" to="2" priority="3" type="a">
        <lane id="D1_0" index="0" speed="55.55" length="3000.00" shape="0.00,-4.95 3000.00,-4.95"/>
        <lane id="D1_1" index="1" speed="55.55" length="3000.00" shape="0.00,-1.65 3000.00,-1.65"/>
    </edge>
    <edge id="D2" from="2" to="3" priority="3" type="a">
        <lane id="D2_0" index="0" speed="55.55" length="3000.05" shape="3000.00,-4.95 6000.05,-4.95"/>
        <lane id="D2_1" index="1" speed="55.55" length="3000.05" shape="3000.00,-1.65 6000.05,-1.65"/>
    </edge>
    <edge id="D3" from="3" to="4" priority="3" type="b">
        <lane id="D3_0" index="0" speed="33.33" length="3000.10" shape="6004.95,-0.05 6004.95,3000.05"/>
        <lane id="D3_1" index="1" speed="33.33" length="3000.10" shape="6001.65,-0.05 6001.65,3000.05"/>
    </edge>
    <edge id="D4" from="4" to="5" priority="3" type="a">
        <lane id="D4_0" index="0" speed="55.55" length="3000.05" shape="6000.05,3004.95 3000.00,3004.95"/>
        <lane id="D4_1" index="1" speed="55.55" length="3000.05" shape="6000.05,3001.65 3000.00,3001.65"/>
    </edge>
    <edge id="D5" from="5" to="6" priority="3" type="a">
        <lane id="D5_0" index="0" speed="55.55" length="2993.45" shape="3000.00,3004.95 6.55,3004.95"/>
        <lane id="D5_1" index="1" speed="55.55" length="2993.45" shape="3000.00,3001.65 6.55,3001.65"/>
    </edge>
    <edge id="D6" from="6" to="7" priority="3" type="b">
        <lane id="D6_0" index="0" speed="33.33" length="2986.90" shape="4.95,3006.55 4.95,5993.45"/>
        <lane id="D6_1" index="1" speed="33.33" length="2986.90" shape="1.65,3006.55 1.65,5993.45"/>
    </edge>
    <edge id="D7" from="7" to="8" priority="3" type="a">
        <lane id="D7_0" index="0" speed="55.55" length="2993.45" shape="6.55,5995.05 3000.00,5995.05"/>
        <lane id="D7_1" index="1" speed="55.55" length="2993.45" shape="6.55,5998.35 3000.00,5998.35"/>
    </edge>
    <edge id="D8" from="8" to="9" priority="3" type="a">
        <lane id="D8_0" index="0" speed="55.55" length="3000.00" shape="3000.00,5995.05 6000.00,5995.05"/>
        <lane id="D8_1" index="1" speed="55.55" length="3000.00" shape="3000.00,5998.35 6000.00,5998.35"/>
    </edge>

    <junction id="1" type="unregulated" x="0.00" y="0.00" incLanes="" intLanes="" shape="-0.00,-0.05 -0.00,-6.55"/>
    <junction id="2" type="priority" x="3000.00" y="0.00" incLanes="D1_0 D1_1" intLanes=":2_0_0 :2_0_1" shape="3000.00,-0.05 3000.00,-6.55 3000.00,-0.05">
        <request index="0" response="00" foes="00" cont="0"/>
        <request index="1" response="00" foes="00" cont="0"/>
    </junction>
    <junction id="3" type="priority" x="6000.00" y="0.00" incLanes="D2_0 D2_1" intLanes=":3_0_0 :3_0_1" shape="6000.05,-0.05 6006.55,-0.05 6000.05,-6.55 6000.05,-0.05">
        <request index="0" response="00" foes="00" cont="0"/>
        <request index="1" response="00" foes="00" cont="0"/>
    </junction>
    <junction id="4" type="priority" x="6000.00" y="3000.00" incLanes="D3_0 D3_1" intLanes=":4_0_0 :4_0_1" shape="6006.55,3000.05 6000.05,3000.05 6000.05,3006.55">
        <request index="0" response="00" foes="00" cont="0"/>
        <request index="1" response="00" foes="00" cont="0"/>
    </junction>
    <junction id="5" type="priority" x="3000.00" y="3000.00" incLanes="D4_0 D4_1" intLanes=":5_0_0 :5_0_1" shape="3000.00,3006.55 3000.00,3000.05 3000.00,3006.55">
        <request index="0" response="00" foes="00" cont="0"/>
        <request index="1" response="00" foes="00" cont="0"/>
    </junction>
    <junction id="6" type="priority" x="0.00" y="3000.00" incLanes="D5_0 D5_1" intLanes=":6_0_0 :6_0_1" shape="0.05,3006.55 6.55,3006.55 6.55,3000.05">
        <request index="0" response="00" foes="00" cont="0"/>
        <request index="1" response="00" foes="00" cont="0"/>
    </junction>
    <junction id="7" type="priority" x="0.00" y="6000.00" incLanes="D6_0 D6_1" intLanes=":7_0_0 :7_0_1" shape="6.55,5999.95 6.55,5993.45 0.05,5993.45">
        <request index="0" response="00" foes="00" cont="0"/>
        <request index="1" response="00" foes="00" cont="0"/>
    </junction>
    <junction id="8" type="priority" x="3000.00" y="6000.00" incLanes="D7_0 D7_1" intLanes=":8_0_0 :8_0_1" shape="3000.00,5999.95 3000.00,5993.45 3000.00,5999.95">
        <request index="0" response="00" foes="00" cont="0"/>
        <request index="1" response="00" foes="00" cont="0"/>
    </junction>
    <junction id="9" type="unregulated" x="6000.00" y="6000.00" incLanes="D8_0 D8_1" intLanes="" shape="6000.00,5993.45 6000.00,5999.95"/>

    <connection from="D1" to="D2" fromLane="0" toLane="0" via=":2_0_0" dir="s" state="M"/>
    <connection from="D1" to="D2" fromLane="1" toLane="1" via=":2_0_1" dir="s" state="M"/>
    <connection from="D2" to="D3" fromLane="0" toLane="0" via=":3_0_0" dir="l" state="M"/>
    <connection from="D2" to="D3" fromLane="1" toLane="1" via=":3_0_1" dir="l" state="M"/>
    <connection from="D3" to="D4" fromLane="0" toLane="0" via=":4_0_0" dir="l" state="M"/>
    <connection from="D3" to="D4" fromLane="1" toLane="1" via=":4_0_1" dir="l" state="M"/>
    <connection from="D4" to="D5" fromLane="0" toLane="0" via=":5_0_0" dir="s" state="M"/>
    <connection from="D4" to="D5" fromLane="1" toLane="1" via=":5_0_1" dir="s" state="M"/>
    <connection from="D5" to="D6" fromLane="0" toLane="0" via=":6_0_0" dir="r" state="M"/>
    <connection from="D5" to="D6" fromLane="1" toLane="1" via=":6_0_1" dir="r" state="M"/>
    <connection from="D6" to="D7" fromLane="0" toLane="0" via=":7_0_0" dir="r" state="M"/>
    <connection from="D6" to="D7" fromLane="1" toLane="1" via=":7_0_1" dir="r" state="M"/>
    <connection from="D7" to="D8" fromLane="0" toLane="0" via=":8_0_0" dir="s" state="M"/>
    <connection from="D7" to="D8" fromLane="1" toLane="1" via=":8_0_1" dir="s" state="M"/>

    <connection from=":2_0" to="D2" fromLane="0" toLane="0" dir="s" state="M"/>
    <connection from=":2_0" to="D2" fromLane="1" toLane="1" dir="s" state="M"/>
    <connection from=":3_0" to="D3" fromLane="0" toLane="0" dir="s" state="M"/>
    <connection from=":3_0" to="D3" fromLane="1" toLane="1" dir="s" state="M"/>
    <connection from=":4_0" to="D4" fromLane="0" toLane="0" dir="s" state="M"/>
    <connection from=":4_0" to="D4" fromLane="1" toLane="1" dir="s" state="M"/>
    <connection from=":5_0" to="D5" fromLane="0" toLane="0" dir="s" state="M"/>
    <connection from=":5_0" to="D5" fromLane="1" toLane="1" dir="s" state="M"/>
    <connection from=":6_0" to="D6" fromLane="0" toLane="0" dir="s" state="M"/>
    <connection from=":6_0" to="D6" fromLane="1" toLane="1" dir="s" state="M"/>
    <connection from=":7_0" to="D7" fromLane="0" toLane="0" dir="s" state="M"/>
    <connection from=":7_0" to="D7" fromLane="1" toLane="1" dir="s" state="M"/>
    <connection from=":8_0" to="D8" fromLane="0" toLane="0" dir="s" state="M"/>
    <connection from=":8_0" to="D8" fromLane="1" toLane="1" dir="s" state="M"/>

</net>
