<?xml version="1.0" encoding="UTF-8"?>

<!-- generated on Wed Jan 14 21:23:05 2015 by SUMO duarouter Version 0.21.0
<?xml version="1.0" encoding="UTF-8"?>

<configuration xmlns:xsi="http://www.w3.org/2001/XMLSchema-instance" xsi:noNamespaceSchemaLocation="http://sumo-sim.org/xsd/duarouterConfiguration.xsd">

    <input>
        <net-file value="wave.net.xml"/>
        <trip-files value="trips.trips.xml"/>
    </input>

    <output>
        <output-file value="wave.rou.xml"/>
    </output>

    <processing>
        <repair value="true"/>
    </processing>

    <time>
        <begin value="0"/>
        <end value="1000"/>
    </time>

</configuration>
-->

<routes xmlns:xsi="http://www.w3.org/2001/XMLSchema-instance" xsi:noNamespaceSchemaLocation="http://sumo-sim.org/xsd/routes_file.xsd">
    <vehicle id="0" depart="0.00">
        <route edges="0/0to1/0 1/0to1/1 1/1to1/2 1/2to1/3 1/3to2/3 2/3to3/3 3/3to4/3 4/3to4/4 4/4to3/4 3/4to2/4 2/4to2/3 2/3to2/2 2/2to2/1 2/1to3/1 3/1to2/1 2/1to2/2 2/2to2/3 2/3to2/4 2/4to1/4 1/4to1/3 1/3to1/2 1/2to0/2 0/2to0/3 0/3to1/3 1/3to1/2 1/2to1/3 1/3to1/2 1/2to2/2 2/2to2/3 2/3to3/3 3/3to3/4 3/4to3/3 3/3to3/2 3/2to3/1 3/1to3/0"/>
    </vehicle>
    <vehicle id="1" depart="5.00">
        <route edges="0/0to1/0 1/0to2/0 2/0to3/0 3/0to2/0 2/0to2/1 2/1to2/2 2/2to2/3 2/3to2/4 2/4to3/4 3/4to4/4 4/4to3/4 3/4to2/4 2/4to2/3 2/3to2/2 2/2to2/1 2/1to2/2 2/2to2/1 2/1to2/0 2/0to3/0 3/0to4/0 4/0to4/1 4/1to3/1 3/1to2/1 2/1to2/2 2/2to1/2 1/2to1/1 1/1to1/0 1/0to2/0 2/0to3/0 3/0to4/0 4/0to3/0 3/0to2/0 2/0to1/0 1/0to1/1 1/1to1/2 1/2to1/3 1/3to0/3 0/3to1/3 1/3to2/3 2/3to3/3 3/3to3/2 3/2to2/2 2/2to1/2 1/2to2/2 2/2to2/3 2/3to3/3 3/3to4/3 4/3to3/3 3/3to2/3 2/3to1/3 1/3to1/2 1/2to1/3"/>
    </vehicle>
    <vehicle id="2" depart="10.00">
        <route edges="1/1to1/2 1/2to1/1 1/1to2/1 2/1to3/1 3/1to4/1 4/1to4/2 4/2to4/3 4/3to4/4 4/4to4/3 4/3to3/3 3/3to2/3 2/3to1/3 1/3to1/2 1/2to1/1 1/1to1/0 1/0to2/0 2/0to2/1 2/1to2/2 2/2to2/3 2/3to2/4 2/4to3/4 3/4to4/4 4/4to3/4 3/4to2/4 2/4to1/4 1/4to1/3 1/3to0/3 0/3to1/3 1/3to1/2 1/2to2/2 2/2to3/2 3/2to2/2 2/2to1/2 1/2to1/3 1/3to2/3 2/3to1/3 1/3to0/3 0/3to0/2 0/2to0/1 0/1to1/1 1/1to2/1 2/1to3/1 3/1to4/1 4/1to4/2 4/2to4/1 4/1to4/0 4/0to4/1"/>
    </vehicle>
    <vehicle id="3" depart="15.00">
        <route edges="0/3to0/4 0/4to0/3 0/3to1/3 1/3to2/3 2/3to2/4 2/4to1/4 1/4to1/3 1/3to2/3 2/3to3/3 3/3to2/3 2/3to2/2 2/2to2/1 2/1to3/1 3/1to4/1 4/1to4/2 4/2to3/2 3/2to2/2 2/2to2/3 2/3to2/2 2/2to2/1 2/1to2/0 2/0to3/0 3/0to3/1 3/1to2/1 2/1to1/1 1/1to0/1 0/1to0/2 0/2to0/3 0/3to0/4 0/4to0/3 0/3to1/3 1/3to2/3 2/3to2/4 2/4to1/4 1/4to1/3 1/3to0/3 0/3to1/3 1/3to0/3 0/3to0/2 0/2to0/1 0/1to1/1"/>
    </vehicle>
    <vehicle id="4" depart="20.00">
        <route edges="1/3to1/2 1/2to1/1 1/1to2/1 2/1to3/1 3/1to3/2 3/2to3/1 3/1to3/0 3/0to2/0 2/0to1/0 1/0to1/1 1/1to0/1 0/1to0/2 0/2to0/3 0/3to0/2 0/2to0/1 0/1to0/2 0/2to1/2 1/2to2/2 2/2to3/2 3/2to4/2 4/2to3/2 3/2to3/1 3/1to4/1 4/1to4/2 4/2to3/2 3/2to2/2 2/2to2/1 2/1to1/1 1/1to1/2 1/2to1/3 1/3to1/2 1/2to0/2 0/2to0/1 0/1to1/1 1/1to1/0 1/0to2/0 2/0to3/0 3/0to4/0 4/0to3/0 3/0to3/1 3/1to3/2 3/2to3/3 3/3to2/3"/>
    </vehicle>
    <vehicle id="5" depart="25.00">
        <route edges="3/3to2/3 2/3to1/3 1/3to1/4 1/4to1/3 1/3to1/2 1/2to1/1 1/1to2/1 2/1to1/1 1/1to1/2 1/2to1/3 1/3to2/3 2/3to3/3 3/3to4/3 4/3to3/3 3/3to2/3 2/3to1/3 1/3to0/3 0/3to0/2 0/2to0/1 0/1to1/1 1/1to2/1 2/1to3/1 3/1to4/1 4/1to3/1 3/1to3/2 3/2to3/3 3/3to3/2 3/2to2/2 2/2to2/1 2/1to2/0 2/0to3/0 3/0to2/0 2/0to1/0 1/0to1/1 1/1to1/2 1/2to1/3 1/3to1/2"/>
    </vehicle>
    <vehicle id="6" depart="30.00">
        <route edges="0/3to0/2 0/2to0/1 0/1to1/1 1/1to2/1 2/1to3/1 3/1to4/1 4/1to3/1 3/1to3/2 3/2to3/3 3/3to2/3 2/3to2/2 2/2to2/1 2/1to2/0 2/0to1/0 1/0to1/1 1/1to0/1 0/1to0/2 0/2to0/3 0/3to0/4 0/4to0/3 0/3to0/2 0/2to1/2 1/2to1/1 1/1to0/1 0/1to0/0 0/0to1/0 1/0to1/1 1/1to1/2 1/2to1/3 1/3to1/2 1/2to1/3 1/3to2/3 2/3to1/3 1/3to1/2 1/2to1/1 1/1to1/2 1/2to2/2 2/2to1/2 1/2to2/2 2/2to3/2 3/2to2/2"/>
    </vehicle>
    <vehicle id="7" depart="35.00">
        <route edges="3/2to2/2 2/2to2/1 2/1to2/0 2/0to1/0 1/0to1/1 1/1to1/2 1/2to1/3 1/3to2/3 2/3to2/4 2/4to3/4 3/4to3/3 3/3to2/3 2/3to2/2 2/2to2/1 2/1to2/0 2/0to3/0 3/0to4/0 4/0to3/0 3/0to2/0 2/0to3/0 3/0to2/0 2/0to1/0 1/0to1/1 1/1to1/2 1/2to1/3 1/3to1/2 1/2to1/1 1/1to2/1 2/1to3/1 3/1to3/2 3/2to3/3 3/3to3/4 3/4to4/4 4/4to4/3 4/3to4/2 4/2to4/1 4/1to4/2 4/2to3/2 3/2to2/2 2/2to1/2 1/2to1/3 1/3to1/4 1/4to0/4"/>
    </vehicle>
    <vehicle id="8" depart="40.00">
        <route edges="3/4to2/4 2/4to1/4 1/4to1/3 1/3to0/3 0/3to0/2 0/2to0/1 0/1to1/1 1/1to2/1 2/1to1/1 1/1to1/2 1/2to2/2 2/2to2/1 2/1to2/0 2/0to2/1 2/1to2/2 2/2to2/3 2/3to2/2 2/2to1/2 1/2to1/3 1/3to1/4 1/4to1/3 1/3to2/3 2/3to3/3 3/3to3/4 3/4to3/3 3/3to3/2 3/2to3/3 3/3to3/2 3/2to3/1 3/1to2/1 2/1to2/2 2/2to3/2 3/2to4/2"/>
    </vehicle>
    <vehicle id="9" depart="45.00">
        <route edges="2/3to2/4 2/4to2/3 2/3to1/3 1/3to1/2 1/2to1/1 1/1to1/0 1/0to2/0 2/0to1/0 1/0to1/1 1/1to0/1 0/1to0/2 0/2to1/2 1/2to1/1 1/1to1/0 1/0to0/0 0/0to0/1 0/1to0/2 0/2to1/2 1/2to2/2 2/2to2/1 2/1to1/1 1/1to0/1 0/1to0/0 0/0to1/0 1/0to1/1 1/1to1/2 1/2to1/3 1/3to2/3 2/3to3/3 3/3to4/3 4/3to4/2 4/2to4/1 4/1to4/0 4/0to3/0 3/0to2/0 2/0to1/0 1/0to1/1 1/1to0/1"/>
    </vehicle>
    <vehicle id="10" depart="50.00">
        <route edges="2/2to1/2 1/2to1/1 1/1to1/0 1/0to2/0 2/0to2/1 2/1to2/2 2/2to3/2 3/2to4/2 4/2to4/3 4/3to3/3 3/3to2/3 2/3to2/2 2/2to2/1 2/1to2/0 2/0to2/1 2/1to1/1 1/1to0/1 0/1to1/1 1/1to0/1 0/1to0/2 0/2to0/1 0/1to0/2 0/2to0/3 0/3to1/3 1/3to1/4 1/4to2/4 2/4to1/4 1/4to2/4 2/4to2/3 2/3to3/3 3/3to4/3 4/3to3/3 3/3to3/2 3/2to3/1 3/1to4/1 4/1to3/1 3/1to3/2"/>
    </vehicle>
    <vehicle id="11" depart="55.00">
        <route edges="1/0to1/1 1/1to1/2 1/2to1/3 1/3to1/4 1/4to2/4 2/4to3/4 3/4to4/4 4/4to3/4 3/4to2/4 2/4to1/4 1/4to1/3 1/3to0/3 0/3to0/2 0/2to1/2 1/2to0/2 0/2to0/1 0/1to0/2 0/2to1/2 1/2to2/2 2/2to3/2 3/2to4/2 4/2to4/3 4/3to3/3 3/3to2/3 2/3to2/2 2/2to2/1 2/1to1/1 1/1to1/0 1/0to1/1 1/1to1/2 1/2to1/3 1/3to2/3 2/3to2/2 2/2to2/1 2/1to2/0 2/0to3/0 3/0to2/0 2/0to2/1 2/1to2/2 2/2to2/3 2/3to3/3 3/3to2/3 2/3to2/2 2/2to2/1 2/1to2/0 2/0to2/1"/>
    </vehicle>
    <vehicle id="12" depart="60.00">
        <route edges="4/4to3/4 3/4to3/3 3/3to3/2 3/2to3/1 3/1to4/1 4/1to3/1 3/1to3/2 3/2to4/2 4/2to3/2 3/2to3/1 3/1to2/1 2/1to2/2 2/2to2/3 2/3to3/3 3/3to4/3 4/3to4/2 4/2to3/2 3/2to3/1 3/1to4/1 4/1to3/1 3/1to2/1 2/1to1/1 1/1to1/0 1/0to2/0 2/0to2/1 2/1to2/2 2/2to3/2 3/2to4/2 4/2to3/2 3/2to2/2 2/2to1/2 1/2to1/3 1/3to1/2 1/2to1/1 1/1to0/1 0/1to0/0 0/0to1/0"/>
    </vehicle>
    <vehicle id="13" depart="65.00">
        <route edges="1/1to0/1 0/1to0/2 0/2to0/3 0/3to0/2 0/2to0/1 0/1to0/2 0/2to0/3 0/3to1/3 1/3to2/3 2/3to2/4 2/4to3/4 3/4to4/4 4/4to3/4 3/4to3/3 3/3to3/4 3/4to3/3 3/3to3/2 3/2to3/1 3/1to3/0 3/0to2/0 2/0to2/1 2/1to2/2 2/2to2/3 2/3to3/3 3/3to4/3 4/3to3/3 3/3to3/2 3/2to4/2 4/2to4/3 4/3to3/3 3/3to2/3 2/3to2/2 2/2to2/1 2/1to2/0 2/0to3/0 3/0to3/1 3/1to4/1 4/1to3/1 3/1to2/1 2/1to1/1 1/1to1/2 1/2to1/3 1/3to1/2"/>
    </vehicle>
    <vehicle id="14" depart="70.00">
        <route edges="2/0to2/1 2/1to2/2 2/2to2/3 2/3to1/3 1/3to0/3 0/3to1/3 1/3to0/3 0/3to0/2 0/2to0/1 0/1to1/1 1/1to1/0 1/0to2/0 2/0to3/0 3/0to2/0 2/0to2/1 2/1to2/2 2/2to2/3 2/3to3/3 3/3to4/3 4/3to3/3 3/3to3/2 3/2to4/2 4/2to3/2 3/2to2/2 2/2to2/1 2/1to2/2 2/2to1/2 1/2to0/2 0/2to0/3 0/3to0/4 0/4to0/3 0/3to0/2 0/2to0/1 0/1to1/1 1/1to2/1 2/1to3/1 3/1to4/1 4/1to4/0"/>
    </vehicle>
    <vehicle id="15" depart="75.00">
        <route edges="1/3to1/2 1/2to1/3 1/3to2/3 2/3to3/3 3/3to2/3 2/3to1/3 1/3to1/2 1/2to1/1 1/1to1/0 1/0to1/1 1/1to1/2 1/2to1/3 1/3to2/3 2/3to3/3 3/3to4/3 4/3to4/2"/>
    </vehicle>
    <vehicle id="16" depart="80.00">
        <route edges="0/4to0/3 0/3to0/2 0/2to0/1 0/1to1/1 1/1to1/0 1/0to2/0 2/0to1/0 1/0to1/1 1/1to1/2 1/2to1/3 1/3to2/3 2/3to3/3 3/3to4/3 4/3to4/2 4/2to4/1 4/1to4/0 4/0to3/0 3/0to2/0 2/0to1/0 1/0to1/1 1/1to1/2 1/2to1/3 1/3to2/3 2/3to1/3 1/3to0/3 0/3to0/2 0/2to0/1 0/1to1/1 1/1to1/2 1/2to2/2 2/2to2/1 2/1to2/2 2/2to2/3 2/3to2/4 2/4to1/4 1/4to1/3 1/3to1/2 1/2to1/1 1/1to1/0 1/0to2/0 2/0to3/0 3/0to4/0 4/0to4/1"/>
    </vehicle>
    <vehicle id="17" depart="85.00">
        <route edges="2/3to2/2 2/2to2/3 2/3to3/3 3/3to3/2 3/2to3/1 3/1to3/0 3/0to2/0 2/0to2/1 2/1to2/2 2/2to1/2 1/2to0/2 0/2to0/3 0/3to1/3 1/3to2/3 2/3to2/2 2/2to2/3 2/3to3/3 3/3to4/3 4/3to4/4 4/4to3/4 3/4to2/4 2/4to2/3 2/3to3/3 3/3to2/3 2/3to2/2 2/2to2/1 2/1to2/0 2/0to2/1 2/1to2/2 2/2to2/3 2/3to2/4 2/4to3/4 3/4to4/4 4/4to3/4 3/4to2/4 2/4to1/4 1/4to1/3 1/3to1/4 1/4to0/4"/>
    </vehicle>
    <vehicle id="18" depart="90.00">
        <route edges="0/2to0/1 0/1to0/2 0/2to1/2 1/2to1/3 1/3to1/2 1/2to1/1 1/1to2/1 2/1to3/1 3/1to4/1 4/1to3/1 3/1to2/1 2/1to2/2 2/2to1/2 1/2to1/3 1/3to1/4 1/4to2/4 2/4to2/3 2/3to1/3 1/3to0/3 0/3to0/2 0/2to0/1 0/1to1/1 1/1to1/0 1/0to2/0 2/0to3/0 3/0to3/1 3/1to3/0 3/0to2/0 2/0to3/0 3/0to3/1 3/1to2/1 2/1to2/2 2/2to2/3 2/3to2/2 2/2to2/1 2/1to3/1 3/1to3/0 3/0to2/0 2/0to1/0 1/0to1/1 1/1to1/2 1/2to1/3 1/3to1/4 1/4to2/4"/>
    </vehicle>
    <vehicle id="19" depart="95.00">
        <route edges="0/0to0/1 0/1to1/1 1/1to2/1 2/1to1/1 1/1to1/2 1/2to1/3 1/3to1/4 1/4to2/4 2/4to3/4 3/4to2/4 2/4to1/4 1/4to1/3 1/3to1/2 1/2to1/1 1/1to1/0 1/0to2/0 2/0to3/0 3/0to4/0 4/0to3/0 3/0to2/0 2/0to1/0 1/0to1/1 1/1to0/1 0/1to0/2 0/2to0/3 0/3to1/3 1/3to1/4 1/4to2/4 2/4to3/4 3/4to4/4 4/4to4/3 4/3to3/3 3/3to3/4 3/4to4/4 4/4to3/4 3/4to3/3 3/3to3/2 3/2to3/1 3/1to3/0 3/0to2/0 2/0to1/0 1/0to1/1 1/1to1/2 1/2to1/3 1/3to1/2 1/2to0/2 0/2to0/3 0/3to0/4 0/4to0/3 0/3to1/3 1/3to2/3 2/3to3/3 3/3to4/3"/>
    </vehicle>
    <vehicle id="20" depart="100.00">
        <route edges="2/2to2/3 2/3to2/2 2/2to3/2 3/2to3/1 3/1to2/1 2/1to1/1 1/1to1/2 1/2to1/3 1/3to1/4 1/4to0/4 0/4to0/3 0/3to0/2 0/2to0/1 0/1to1/1 1/1to1/0 1/0to1/1 1/1to1/2 1/2to1/3 1/3to2/3 2/3to3/3 3/3to4/3 4/3to4/4 4/4to3/4 3/4to2/4 2/4to1/4 1/4to0/4 0/4to1/4 1/4to1/3 1/3to1/2 1/2to1/1 1/1to1/0 1/0to2/0 2/0to3/0 3/0to4/0 4/0to3/0 3/0to2/0 2/0to1/0 1/0to1/1 1/1to0/1 0/1to1/1"/>
    </vehicle>
    <vehicle id="21" depart="105.00">
        <route edges="1/1to1/0 1/0to1/1 1/1to2/1 2/1to3/1 3/1to2/1 2/1to1/1 1/1to1/0 1/0to0/0 0/0to1/0 1/0to1/1 1/1to1/2 1/2to1/3 1/3to1/4 1/4to2/4 2/4to3/4 3/4to4/4 4/4to3/4 3/4to2/4 2/4to1/4 1/4to1/3 1/3to1/2 1/2to1/1 1/1to0/1 0/1to0/2 0/2to1/2 1/2to2/2 2/2to2/3 2/3to1/3 1/3to1/2 1/2to1/1 1/1to1/0 1/0to2/0 2/0to2/1 2/1to2/2 2/2to1/2 1/2to1/1 1/1to2/1 2/1to3/1 3/1to4/1 4/1to3/1 3/1to2/1 2/1to1/1 1/1to0/1 0/1to0/2 0/2to0/3 0/3to0/4 0/4to0/3 0/3to1/3 1/3to2/3 2/3to3/3 3/3to4/3 4/3to4/4"/>
    </vehicle>
    <vehicle id="22" depart="110.00">
        <route edges="1/1to1/2 1/2to1/1 1/1to1/0 1/0to2/0 2/0to1/0 1/0to1/1 1/1to1/2 1/2to1/3 1/3to1/4 1/4to1/3 1/3to1/2 1/2to1/1 1/1to2/1 2/1to2/0 2/0to1/0 1/0to1/1 1/1to1/2 1/2to1/3 1/3to1/2 1/2to0/2 0/2to0/1 0/1to0/0 0/0to0/1 0/1to0/2 0/2to0/3 0/3to1/3 1/3to1/4 1/4to2/4 2/4to3/4 3/4to4/4 4/4to3/4 3/4to2/4 2/4to1/4 1/4to1/3 1/3to1/2 1/2to1/1 1/1to2/1 2/1to3/1 3/1to3/2 3/2to2/2 2/2to2/1 2/1to2/2 2/2to2/3 2/3to3/3 3/3to4/3 4/3to4/4"/>
    </vehicle>
    <vehicle id="23" depart="115.00">
        <route edges="3/4to2/4 2/4to2/3 2/3to2/2 2/2to3/2 3/2to2/2 2/2to1/2 1/2to1/3 1/3to1/4 1/4to0/4 0/4to0/3 0/3to0/2 0/2to0/1 0/1to1/1 1/1to2/1 2/1to3/1 3/1to3/2 3/2to2/2 2/2to1/2 1/2to0/2 0/2to0/1 0/1to0/0 0/0to0/1 0/1to0/2 0/2to0/3 0/3to1/3 1/3to1/4 1/4to2/4 2/4to3/4 3/4to4/4 4/4to3/4 3/4to2/4 2/4to2/3 2/3to2/2 2/2to2/1 2/1to3/1 3/1to3/2 3/2to3/3 3/3to3/4 3/4to4/4 4/4to3/4 3/4to2/4 2/4to1/4 1/4to1/3 1/3to0/3 0/3to1/3 1/3to1/2 1/2to1/1 1/1to1/2 1/2to1/3"/>
    </vehicle>
    <vehicle id="24" depart="120.00">
        <route edges="0/2to1/2 1/2to1/3 1/3to2/3 2/3to3/3 3/3to4/3 4/3to4/4 4/4to3/4 3/4to2/4 2/4to1/4 1/4to1/3 1/3to0/3 0/3to0/2 0/2to0/3 0/3to1/3 1/3to1/4 1/4to2/4 2/4to3/4 3/4to3/3 3/3to3/2 3/2to3/3 3/3to2/3 2/3to2/2 2/2to3/2 3/2to3/3 3/3to3/4 3/4to4/4 4/4to3/4 3/4to2/4 2/4to1/4 1/4to1/3 1/3to1/2 1/2to1/1 1/1to1/0 1/0to1/1 1/1to2/1 2/1to2/0 2/0to1/0 1/0to1/1 1/1to1/2 1/2to1/3 1/3to1/4 1/4to1/3 1/3to1/2 1/2to2/2 2/2to2/3 2/3to2/4 2/4to2/3"/>
    </vehicle>
    <vehicle id="25" depart="125.00">
        <route edges="3/1to3/2 3/2to2/2 2/2to2/3 2/3to2/4 2/4to1/4 1/4to1/3 1/3to1/2 1/2to1/1 1/1to2/1 2/1to3/1 3/1to3/2 3/2to3/3 3/3to3/4 3/4to3/3 3/3to3/2 3/2to3/1 3/1to4/1 4/1to4/0 4/0to3/0 3/0to3/1 3/1to3/2 3/2to3/3 3/3to3/4 3/4to4/4 4/4to3/4 3/4to2/4 2/4to1/4 1/4to1/3 1/3to1/2 1/2to2/2 2/2to3/2 3/2to2/2 2/2to2/1 2/1to1/1 1/1to1/2 1/2to2/2 2/2to3/2 3/2to2/2 2/2to1/2 1/2to0/2 0/2to0/1 0/1to0/2 0/2to0/3 0/3to1/3 1/3to2/3 2/3to2/4"/>
    </vehicle>
    <vehicle id="26" depart="130.00">
        <route edges="4/2to4/3 4/3to4/2 4/2to4/1 4/1to4/2 4/2to3/2 3/2to2/2 2/2to2/1 2/1to3/1 3/1to2/1 2/1to2/2 2/2to1/2 1/2to0/2 0/2to0/3 0/3to0/2 0/2to1/2 1/2to2/2 2/2to1/2 1/2to1/1 1/1to1/0 1/0to2/0 2/0to3/0 3/0to4/0 4/0to4/1 4/1to3/1 3/1to2/1 2/1to1/1 1/1to1/2 1/2to1/3 1/3to1/4 1/4to1/3 1/3to1/2 1/2to2/2 2/2to3/2 3/2to4/2 4/2to4/1 4/1to3/1 3/1to3/2 3/2to3/3 3/3to3/2 3/2to2/2 2/2to1/2 1/2to1/3 1/3to1/2 1/2to1/3 1/3to0/3"/>
    </vehicle>
    <vehicle id="27" depart="135.00">
        <route edges="3/3to2/3 2/3to3/3 3/3to3/2 3/2to3/1 3/1to3/0 3/0to3/1 3/1to2/1 2/1to1/1 1/1to1/2 1/2to1/1 1/1to1/2 1/2to2/2 2/2to2/3 2/3to1/3 1/3to1/4 1/4to2/4 2/4to2/3 2/3to2/2 2/2to1/2 1/2to1/1 1/1to1/0 1/0to2/0 2/0to3/0 3/0to2/0 2/0to1/0 1/0to1/1 1/1to1/2 1/2to2/2 2/2to2/3 2/3to2/2 2/2to3/2 3/2to4/2 4/2to3/2 3/2to2/2 2/2to2/1 2/1to1/1"/>
    </vehicle>
    <vehicle id="28" depart="140.00">
        <route edges="2/4to2/3 2/3to1/3 1/3to1/4 1/4to0/4 0/4to0/3 0/3to0/2 0/2to0/1 0/1to0/0 0/0to1/0 1/0to1/1 1/1to1/2 1/2to1/3 1/3to1/4 1/4to2/4 2/4to2/3 2/3to1/3 1/3to1/2 1/2to1/1 1/1to1/0 1/0to1/1 1/1to0/1 0/1to0/2 0/2to0/3 0/3to1/3 1/3to0/3 0/3to1/3 1/3to1/4 1/4to2/4 2/4to3/4 3/4to4/4 4/4to3/4 3/4to3/3 3/3to3/2 3/2to3/1 3/1to2/1 2/1to1/1 1/1to0/1 0/1to0/2 0/2to0/3 0/3to0/4 0/4to1/4 1/4to1/3 1/3to1/2 1/2to0/2 0/2to0/3 0/3to0/4"/>
    </vehicle>
    <vehicle id="29" depart="145.00">
        <route edges="3/3to4/3 4/3to3/3 3/3to2/3 2/3to2/4 2/4to2/3 2/3to2/2 2/2to2/1 2/1to3/1 3/1to4/1 4/1to4/2 4/2to3/2 3/2to2/2 2/2to2/1 2/1to2/0 2/0to1/0 1/0to1/1 1/1to2/1 2/1to3/1 3/1to2/1 2/1to2/0 2/0to1/0 1/0to1/1 1/1to1/2 1/2to1/3 1/3to1/4 1/4to2/4 2/4to3/4 3/4to4/4 4/4to4/3 4/3to3/3 3/3to2/3 2/3to1/3 1/3to0/3 0/3to0/2 0/2to0/1 0/1to0/2 0/2to1/2 1/2to2/2 2/2to3/2 3/2to4/2 4/2to4/3 4/3to3/3 3/3to2/3 2/3to1/3 1/3to1/2 1/2to0/2 0/2to0/1 0/1to1/1 1/1to2/1 2/1to3/1 3/1to4/1 4/1to3/1"/>
    </vehicle>
    <vehicle id="30" depart="150.00">
        <route edges="4/2to4/1 4/1to3/1 3/1to2/1 2/1to2/2 2/2to2/3 2/3to2/4 2/4to3/4 3/4to2/4 2/4to1/4 1/4to1/3 1/3to1/2 1/2to2/2 2/2to1/2 1/2to1/1 1/1to2/1 2/1to2/2 2/2to2/3 2/3to2/4 2/4to3/4 3/4to2/4 2/4to2/3 2/3to3/3 3/3to4/3 4/3to4/4 4/4to3/4 3/4to2/4 2/4to1/4 1/4to0/4 0/4to0/3 0/3to0/2 0/2to0/1 0/1to0/2 0/2to0/3 0/3to1/3 1/3to1/4 1/4to1/3 1/3to2/3 2/3to3/3 3/3to3/2"/>
    </vehicle>
    <vehicle id="31" depart="155.00">
        <route edges="2/2to3/2 3/2to2/2 2/2to2/1 2/1to2/0 2/0to3/0 3/0to3/1 3/1to3/2 3/2to3/3 3/3to4/3 4/3to3/3 3/3to2/3 2/3to2/2 2/2to2/1 2/1to2/0 2/0to2/1 2/1to1/1 1/1to0/1 0/1to0/0 0/0to0/1 0/1to0/2 0/2to0/3 0/3to1/3 1/3to1/4 1/4to2/4 2/4to3/4 3/4to4/4 4/4to4/3 4/3to3/3 3/3to2/3 2/3to1/3 1/3to1/2 1/2to1/1 1/1to2/1 2/1to1/1 1/1to1/2 1/2to1/3 1/3to1/4 1/4to1/3 1/3to2/3 2/3to2/2 2/2to2/1 2/1to2/0 2/0to3/0 3/0to4/0 4/0to3/0 3/0to3/1 3/1to3/2 3/2to2/2"/>
    </vehicle>
    <vehicle id="32" depart="160.00">
        <route edges="3/4to4/4 4/4to3/4 3/4to2/4 2/4to2/3 2/3to2/2 2/2to2/1 2/1to2/2 2/2to2/3 2/3to2/4 2/4to2/3 2/3to2/2 2/2to2/1 2/1to2/0 2/0to3/0 3/0to4/0 4/0to3/0 3/0to2/0 2/0to1/0 1/0to1/1 1/1to1/2 1/2to1/3 1/3to2/3 2/3to1/3 1/3to1/4 1/4to0/4 0/4to0/3 0/3to0/2 0/2to1/2 1/2to0/2 0/2to0/1 0/1to1/1 1/1to1/2 1/2to2/2 2/2to3/2 3/2to3/1 3/1to2/1 2/1to1/1 1/1to1/2 1/2to1/3 1/3to1/4 1/4to2/4 2/4to3/4 3/4to2/4 2/4to2/3 2/3to2/2 2/2to2/1 2/1to3/1 3/1to3/2"/>
    </vehicle>
    <vehicle id="33" depart="165.00">
        <route edges="1/3to2/3 2/3to1/3 1/3to0/3 0/3to1/3 1/3to1/2 1/2to1/1 1/1to2/1 2/1to3/1 3/1to3/0 3/0to3/1 3/1to3/2 3/2to3/3 3/3to3/4 3/4to4/4 4/4to4/3 4/3to3/3 3/3to2/3 2/3to1/3 1/3to1/2 1/2to1/1 1/1to1/0 1/0to2/0 2/0to1/0 1/0to1/1 1/1to1/2 1/2to2/2 2/2to2/1 2/1to2/0 2/0to1/0 1/0to1/1 1/1to2/1 2/1to3/1 3/1to4/1 4/1to4/0 4/0to3/0 3/0to2/0 2/0to1/0 1/0to1/1 1/1to1/2 1/2to1/3 1/3to1/2 1/2to1/1 1/1to1/0 1/0to2/0 2/0to1/0 1/0to1/1 1/1to1/2 1/2to2/2 2/2to1/2 1/2to1/3 1/3to1/4 1/4to2/4 2/4to3/4"/>
    </vehicle>
    <vehicle id="34" depart="170.00">
        <route edges="2/3to2/2 2/2to1/2 1/2to1/3 1/3to1/4 1/4to1/3 1/3to1/2 1/2to1/1 1/1to2/1 2/1to3/1 3/1to4/1 4/1to3/1 3/1to3/2 3/2to3/3 3/3to3/4 3/4to3/3 3/3to3/2 3/2to3/1 3/1to4/1 4/1to3/1 3/1to2/1 2/1to1/1 1/1to0/1 0/1to0/2 0/2to1/2 1/2to1/3 1/3to1/4 1/4to2/4 2/4to3/4 3/4to4/4 4/4to3/4 3/4to2/4 2/4to1/4 1/4to1/3 1/3to1/4 1/4to1/3 1/3to1/2 1/2to2/2 2/2to3/2 3/2to2/2 2/2to1/2 1/2to1/1 1/1to1/0"/>
    </vehicle>
    <vehicle id="35" depart="175.00">
        <route edges="3/0to4/0 4/0to4/1 4/1to4/2 4/2to4/3 4/3to3/3 3/3to2/3 2/3to1/3 1/3to2/3 2/3to3/3 3/3to3/2 3/2to3/1 3/1to4/1 4/1to4/0 4/0to3/0 3/0to2/0 2/0to1/0 1/0to1/1 1/1to0/1 0/1to0/2 0/2to1/2 1/2to1/3 1/3to2/3 2/3to2/2 2/2to2/1 2/1to2/0 2/0to3/0 3/0to3/1 3/1to2/1 2/1to1/1 1/1to1/2 1/2to1/1 1/1to1/0 1/0to2/0 2/0to1/0 1/0to1/1 1/1to2/1 2/1to2/0 2/0to2/1 2/1to2/2 2/2to3/2 3/2to4/2"/>
    </vehicle>
    <vehicle id="36" depart="180.00">
        <route edges="2/4to3/4 3/4to2/4 2/4to1/4 1/4to1/3 1/3to0/3 0/3to0/2 0/2to0/1 0/1to1/1 1/1to1/0 1/0to2/0 2/0to3/0 3/0to4/0 4/0to3/0 3/0to3/1 3/1to3/0 3/0to2/0 2/0to1/0 1/0to1/1 1/1to1/2 1/2to1/3 1/3to0/3 0/3to0/2 0/2to0/1 0/1to1/1 1/1to1/0 1/0to1/1 1/1to1/2 1/2to1/3 1/3to2/3 2/3to3/3 3/3to4/3 4/3to4/2 4/2to3/2 3/2to2/2 2/2to1/2 1/2to1/1 1/1to2/1 2/1to3/1 3/1to4/1 4/1to3/1 3/1to2/1 2/1to1/1 1/1to0/1 0/1to0/0 0/0to0/1 0/1to0/2 0/2to0/3 0/3to1/3 1/3to2/3 2/3to3/3 3/3to4/3 4/3to4/2 4/2to3/2 3/2to3/3 3/3to3/4 3/4to4/4"/>
    </vehicle>
    <vehicle id="37" depart="185.00">
        <route edges="2/1to1/1 1/1to1/2 1/2to1/3 1/3to1/4 1/4to2/4 2/4to3/4 3/4to4/4 4/4to3/4 3/4to2/4 2/4to1/4 1/4to1/3 1/3to0/3 0/3to0/2 0/2to0/1 0/1to1/1 1/1to1/2 1/2to2/2 2/2to3/2 3/2to3/1 3/1to3/0 3/0to3/1 3/1to2/1 2/1to1/1 1/1to1/2 1/2to1/3 1/3to1/4 1/4to2/4 2/4to2/3 2/3to2/2 2/2to2/1 2/1to3/1 3/1to4/1 4/1to4/2 4/2to3/2 3/2to2/2 2/2to1/2 1/2to1/1 1/1to1/0 1/0to1/1 1/1to1/2 1/2to1/3 1/3to2/3 2/3to3/3 3/3to4/3 4/3to3/3 3/3to3/2 3/2to3/1 3/1to3/0 3/0to2/0 2/0to1/0 1/0to1/1 1/1to0/1 0/1to0/2"/>
    </vehicle>
    <vehicle id="38" depart="190.00">
        <route edges="3/4to2/4 2/4to2/3 2/3to2/2 2/2to1/2 1/2to1/3 1/3to1/4 1/4to1/3 1/3to0/3 0/3to0/2 0/2to0/1 0/1to0/0 0/0to0/1 0/1to0/2 0/2to1/2 1/2to1/1 1/1to0/1 0/1to0/2 0/2to1/2 1/2to2/2 2/2to2/1 2/1to2/0 2/0to3/0 3/0to3/1 3/1to3/2 3/2to3/3 3/3to3/4 3/4to4/4 4/4to3/4 3/4to3/3 3/3to3/2 3/2to3/1 3/1to2/1 2/1to1/1 1/1to1/0 1/0to1/1 1/1to0/1 0/1to1/1"/>
    </vehicle>
    <vehicle id="39" depart="195.00">
        <route edges="3/2to3/3 3/3to2/3 2/3to2/4 2/4to2/3 2/3to1/3 1/3to0/3 0/3to0/4 0/4to0/3 0/3to0/2 0/2to1/2 1/2to2/2 2/2to3/2 3/2to3/3 3/3to3/4 3/4to2/4 2/4to2/3 2/3to2/2 2/2to2/1 2/1to2/2 2/2to2/3 2/3to3/3 3/3to2/3 2/3to1/3 1/3to0/3 0/3to0/2 0/2to0/3 0/3to1/3 1/3to2/3 2/3to3/3 3/3to3/4 3/4to3/3 3/3to3/2 3/2to3/1 3/1to3/0 3/0to4/0 4/0to4/1 4/1to3/1 3/1to3/2 3/2to3/1 3/1to2/1 2/1to2/2 2/2to2/3 2/3to2/4 2/4to1/4"/>
    </vehicle>
    <vehicle id="40" depart="200.00">
        <route edges="3/2to3/1 3/1to2/1 2/1to1/1 1/1to2/1 2/1to2/2 2/2to2/3 2/3to2/4 2/4to1/4 1/4to2/4 2/4to2/3 2/3to2/2 2/2to2/1 2/1to2/0 2/0to3/0 3/0to4/0 4/0to3/0 3/0to2/0 2/0to2/1 2/1to3/1 3/1to3/2 3/2to3/3 3/3to3/2 3/2to2/2 2/2to2/1 2/1to2/2 2/2to2/1 2/1to2/0 2/0to3/0 3/0to4/0 4/0to3/0 3/0to2/0 2/0to1/0 1/0to1/1 1/1to1/0 1/0to2/0"/>
    </vehicle>
    <vehicle id="41" depart="205.00">
        <route edges="1/4to2/4 2/4to2/3 2/3to2/2 2/2to1/2 1/2to1/1 1/1to1/0 1/0to2/0 2/0to2/1 2/1to2/2 2/2to3/2 3/2to3/1 3/1to3/2 3/2to4/2 4/2to4/3 4/3to3/3 3/3to2/3 2/3to1/3 1/3to0/3 0/3to0/2 0/2to0/1 0/1to1/1 1/1to1/2 1/2to1/3 1/3to1/4 1/4to0/4 0/4to1/4 1/4to2/4 2/4to3/4 3/4to4/4 4/4to4/3 4/3to3/3 3/3to2/3 2/3to1/3 1/3to0/3 0/3to0/2 0/2to0/3 0/3to1/3 1/3to1/4 1/4to0/4 0/4to0/3 0/3to1/3 1/3to1/4"/>
    </vehicle>
    <vehicle id="42" depart="210.00">
        <route edges="0/3to0/4 0/4to0/3 0/3to0/2 0/2to0/3 0/3to1/3 1/3to2/3 2/3to3/3 3/3to2/3 2/3to2/2 2/2to2/1 2/1to3/1 3/1to2/1 2/1to2/0 2/0to1/0 1/0to1/1 1/1to0/1 0/1to1/1 1/1to1/0 1/0to2/0 2/0to3/0 3/0to2/0 2/0to3/0 3/0to4/0 4/0to3/0 3/0to3/1 3/1to3/2 3/2to4/2 4/2to3/2 3/2to2/2 2/2to1/2 1/2to1/1 1/1to1/0 1/0to2/0"/>
    </vehicle>
    <vehicle id="43" depart="215.00">
        <route edges="4/1to4/0 4/0to3/0 3/0to2/0 2/0to1/0 1/0to1/1 1/1to0/1 0/1to0/2 0/2to0/3 0/3to1/3 1/3to1/2 1/2to1/1 1/1to2/1 2/1to2/2 2/2to1/2 1/2to0/2 0/2to0/3 0/3to0/4 0/4to0/3 0/3to0/2 0/2to1/2 1/2to2/2 2/2to3/2 3/2to3/1 3/1to3/2 3/2to3/3 3/3to4/3 4/3to4/4 4/4to3/4 3/4to3/3 3/3to3/2 3/2to3/3 3/3to2/3 2/3to2/4"/>
    </vehicle>
    <vehicle id="44" depart="220.00">
        <route edges="2/0to1/0 1/0to2/0 2/0to3/0 3/0to4/0 4/0to3/0 3/0to2/0 2/0to1/0 1/0to1/1 1/1to1/2 1/2to1/3 1/3to1/4 1/4to2/4 2/4to2/3 2/3to2/2 2/2to2/1 2/1to2/0 2/0to3/0 3/0to4/0 4/0to3/0 3/0to3/1 3/1to2/1 2/1to2/2 2/2to3/2 3/2to4/2 4/2to4/3 4/3to3/3 3/3to2/3 2/3to2/2 2/2to2/3 2/3to2/2 2/2to2/1 2/1to2/0 2/0to3/0 3/0to2/0 2/0to1/0 1/0to0/0 0/0to1/0 1/0to1/1 1/1to0/1 0/1to0/2 0/2to0/1 0/1to1/1 1/1to1/0 1/0to2/0 2/0to3/0 3/0to2/0"/>
    </vehicle>
    <vehicle id="45" depart="225.00">
        <route edges="3/1to2/1 2/1to1/1 1/1to0/1 0/1to0/0 0/0to1/0 1/0to1/1 1/1to1/2 1/2to1/3 1/3to1/4 1/4to2/4 2/4to3/4 3/4to4/4 4/4to4/3 4/3to3/3 3/3to2/3 2/3to1/3 1/3to1/2 1/2to2/2 2/2to3/2 3/2to2/2 2/2to2/3 2/3to3/3 3/3to3/4 3/4to2/4 2/4to1/4 1/4to1/3 1/3to0/3 0/3to0/2 0/2to0/1 0/1to0/2 0/2to0/3 0/3to0/4 0/4to1/4 1/4to1/3 1/3to2/3 2/3to3/3 3/3to3/2 3/2to2/2 2/2to1/2 1/2to2/2 2/2to1/2 1/2to1/3 1/3to0/3 0/3to0/2 0/2to0/1 0/1to1/1 1/1to1/0 1/0to2/0 2/0to3/0 3/0to4/0 4/0to3/0"/>
    </vehicle>
    <vehicle id="46" depart="230.00">
        <route edges="2/3to2/4 2/4to2/3 2/3to1/3 1/3to1/2 1/2to1/1 1/1to1/0 1/0to2/0 2/0to2/1 2/1to3/1 3/1to4/1 4/1to4/2 4/2to3/2 3/2to3/3 3/3to2/3 2/3to1/3 1/3to1/2 1/2to2/2 2/2to1/2 1/2to1/1 1/1to1/0 1/0to1/1 1/1to1/2 1/2to2/2 2/2to1/2 1/2to1/1 1/1to1/0 1/0to2/0 2/0to3/0 3/0to3/1 3/1to3/2 3/2to4/2 4/2to3/2 3/2to3/1 3/1to3/0 3/0to2/0 2/0to2/1 2/1to2/2 2/2to2/3 2/3to2/2"/>
    </vehicle>
    <vehicle id="47" depart="235.00">
        <route edges="4/0to3/0 3/0to4/0 4/0to4/1 4/1to4/0 4/0to3/0 3/0to2/0 2/0to1/0 1/0to1/1 1/1to0/1 0/1to0/2 0/2to1/2 1/2to2/2 2/2to3/2 3/2to2/2 2/2to1/2 1/2to1/1 1/1to1/2 1/2to2/2 2/2to2/3 2/3to1/3 1/3to1/2 1/2to1/1 1/1to2/1 2/1to1/1 1/1to1/2 1/2to1/3 1/3to2/3 2/3to3/3 3/3to4/3 4/3to3/3 3/3to2/3 2/3to1/3 1/3to0/3 0/3to0/2 0/2to0/1 0/1to0/2 0/2to0/3 0/3to1/3"/>
    </vehicle>
    <vehicle id="48" depart="240.00">
        <route edges="1/1to1/2 1/2to1/1 1/1to1/0 1/0to2/0 2/0to3/0 3/0to2/0 2/0to1/0 1/0to2/0 2/0to1/0 1/0to1/1 1/1to1/2 1/2to1/3 1/3to1/2 1/2to1/3 1/3to1/4 1/4to2/4 2/4to3/4 3/4to2/4 2/4to2/3 2/3to3/3 3/3to2/3 2/3to2/4 2/4to3/4 3/4to2/4 2/4to1/4 1/4to1/3 1/3to1/2 1/2to1/1 1/1to1/0 1/0to1/1 1/1to1/2 1/2to2/2 2/2to2/1 2/1to3/1 3/1to3/0 3/0to2/0 2/0to3/0"/>
    </vehicle>
    <vehicle id="49" depart="245.00">
        <route edges="1/0to2/0 2/0to2/1 2/1to2/2 2/2to2/3 2/3to2/4 2/4to1/4 1/4to1/3 1/3to0/3 0/3to0/2 0/2to0/3 0/3to1/3 1/3to1/4 1/4to2/4 2/4to2/3 2/3to1/3 1/3to1/2 1/2to1/1 1/1to2/1 2/1to2/2 2/2to2/3 2/3to2/4 2/4to3/4 3/4to2/4 2/4to2/3 2/3to3/3 3/3to3/2 3/2to2/2 2/2to1/2 1/2to1/1 1/1to1/0 1/0to0/0 0/0to1/0 1/0to2/0 2/0to1/0 1/0to1/1 1/1to1/2 1/2to1/3 1/3to2/3 2/3to3/3 3/3to4/3"/>
    </vehicle>
    <vehicle id="50" depart="250.00">
        <route edges="2/0to1/0 1/0to1/1 1/1to1/2 1/2to1/3 1/3to2/3 2/3to3/3 3/3to3/4 3/4to3/3 3/3to3/2 3/2to3/1 3/1to4/1 4/1to4/2 4/2to3/2 3/2to2/2 2/2to1/2 1/2to1/3 1/3to1/4 1/4to1/3 1/3to1/2 1/2to2/2 2/2to2/3 2/3to1/3 1/3to0/3 0/3to0/2 0/2to0/3 0/3to0/2 0/2to0/1 0/1to1/1 1/1to1/2 1/2to1/1 1/1to2/1 2/1to3/1 3/1to4/1 4/1to3/1 3/1to2/1 2/1to2/2 2/2to2/3 2/3to1/3 1/3to1/4 1/4to2/4 2/4to3/4 3/4to4/4 4/4to4/3 4/3to3/3 3/3to2/3 2/3to1/3 1/3to1/2 1/2to1/1 1/1to1/0"/>
    </vehicle>
    <vehicle id="51" depart="255.00">
        <route edges="4/1to3/1 3/1to2/1 2/1to1/1 1/1to0/1 0/1to0/2 0/2to0/3 0/3to0/4 0/4to1/4 1/4to1/3 1/3to1/2 1/2to1/1 1/1to2/1 2/1to3/1 3/1to4/1 4/1to4/2 4/2to3/2 3/2to2/2 2/2to1/2 1/2to0/2 0/2to0/3 0/3to0/2 0/2to0/1 0/1to1/1 1/1to2/1 2/1to2/0 2/0to3/0 3/0to3/1 3/1to3/2 3/2to4/2 4/2to4/3 4/3to3/3 3/3to2/3 2/3to3/3 3/3to3/2 3/2to3/3 3/3to2/3 2/3to1/3 1/3to1/2 1/2to1/3 1/3to1/2 1/2to1/1 1/1to2/1 2/1to3/1 3/1to4/1 4/1to4/0"/>
    </vehicle>
    <vehicle id="52" depart="260.00">
        <route edges="4/3to4/2 4/2to4/3 4/3to3/3 3/3to2/3 2/3to2/2 2/2to2/1 2/1to2/0 2/0to3/0 3/0to3/1 3/1to3/2 3/2to3/3 3/3to3/4 3/4to3/3 3/3to3/2 3/2to3/1 3/1to3/2 3/2to2/2 2/2to3/2 3/2to2/2 2/2to1/2 1/2to1/3 1/3to1/4 1/4to2/4 2/4to1/4 1/4to1/3 1/3to0/3 0/3to0/2 0/2to0/1 0/1to0/2 0/2to0/3 0/3to1/3 1/3to2/3 2/3to2/2 2/2to2/3 2/3to2/4 2/4to3/4 3/4to3/3 3/3to2/3 2/3to1/3 1/3to1/2 1/2to1/1 1/1to1/0 1/0to0/0"/>
    </vehicle>
    <vehicle id="53" depart="265.00">
        <route edges="1/1to1/0 1/0to1/1 1/1to1/2 1/2to1/3 1/3to1/4 1/4to1/3 1/3to2/3 2/3to3/3 3/3to4/3 4/3to3/3 3/3to2/3 2/3to1/3 1/3to1/2 1/2to1/1 1/1to0/1 0/1to1/1 1/1to1/0 1/0to2/0 2/0to3/0 3/0to4/0 4/0to3/0 3/0to3/1 3/1to2/1 2/1to2/0 2/0to3/0 3/0to2/0 2/0to1/0 1/0to1/1 1/1to1/0 1/0to1/1 1/1to1/2 1/2to1/3 1/3to1/4 1/4to2/4 2/4to2/3 2/3to2/2 2/2to2/1 2/1to1/1 1/1to2/1 2/1to3/1 3/1to4/1 4/1to3/1"/>
    </vehicle>
    <vehicle id="54" depart="270.00">
        <route edges="0/4to0/3 0/3to1/3 1/3to1/4 1/4to1/3 1/3to1/2 1/2to1/1 1/1to2/1 2/1to2/0 2/0to2/1 2/1to2/2 2/2to2/3 2/3to2/4 2/4to2/3 2/3to2/2 2/2to2/1 2/1to2/0 2/0to1/0 1/0to1/1 1/1to0/1 0/1to0/0 0/0to0/1 0/1to0/2 0/2to1/2 1/2to2/2 2/2to3/2 3/2to4/2 4/2to3/2 3/2to3/3 3/3to4/3 4/3to4/4 4/4to3/4 3/4to2/4 2/4to2/3 2/3to2/2 2/2to2/1 2/1to1/1 1/1to2/1 2/1to3/1 3/1to4/1 4/1to4/2 4/2to4/3 4/3to3/3 3/3to3/4 3/4to3/3"/>
    </vehicle>
    <vehicle id="55" depart="275.00">
        <route edges="2/3to3/3 3/3to3/2 3/2to3/3 3/3to2/3 2/3to2/2 2/2to2/1 2/1to2/0 2/0to3/0 3/0to2/0 2/0to1/0 1/0to1/1 1/1to0/1 0/1to0/2 0/2to0/3 0/3to1/3 1/3to1/2 1/2to1/1 1/1to2/1 2/1to2/0 2/0to2/1 2/1to2/2 2/2to2/3 2/3to2/4 2/4to3/4 3/4to4/4 4/4to4/3 4/3to3/3 3/3to3/2 3/2to4/2 4/2to3/2 3/2to2/2 2/2to1/2 1/2to1/1 1/1to1/2 1/2to1/3 1/3to0/3 0/3to1/3 1/3to1/4 1/4to2/4 2/4to1/4 1/4to1/3 1/3to0/3 0/3to0/2"/>
    </vehicle>
    <vehicle id="56" depart="280.00">
        <route edges="2/0to2/1 2/1to2/2 2/2to2/3 2/3to2/4 2/4to1/4 1/4to2/4 2/4to2/3 2/3to2/2 2/2to2/1 2/1to2/0 2/0to2/1 2/1to1/1 1/1to1/2 1/2to1/3 1/3to1/4 1/4to0/4 0/4to0/3 0/3to0/2 0/2to1/2 1/2to2/2 2/2to3/2 3/2to4/2 4/2to4/3 4/3to3/3 3/3to2/3 2/3to1/3 1/3to0/3 0/3to0/2 0/2to0/1 0/1to0/0 0/0to0/1 0/1to0/2 0/2to1/2 1/2to0/2 0/2to0/1 0/1to1/1 1/1to2/1 2/1to2/0 2/0to2/1 2/1to3/1 3/1to3/0 3/0to2/0 2/0to3/0 3/0to2/0 2/0to2/1 2/1to2/2 2/2to2/3 2/3to1/3"/>
    </vehicle>
    <vehicle id="57" depart="285.00">
        <route edges="3/2to3/1 3/1to3/0 3/0to3/1 3/1to3/2 3/2to3/3 3/3to4/3 4/3to4/4 4/4to3/4 3/4to2/4 2/4to2/3 2/3to2/2 2/2to2/1 2/1to3/1 3/1to2/1 2/1to1/1 1/1to1/2 1/2to1/3 1/3to1/4 1/4to2/4 2/4to2/3 2/3to3/3 3/3to4/3 4/3to4/2 4/2to3/2 3/2to3/3 3/3to3/4 3/4to3/3 3/3to2/3 2/3to1/3 1/3to1/2 1/2to2/2 2/2to1/2 1/2to0/2 0/2to0/1 0/1to0/0 0/0to0/1 0/1to1/1 1/1to2/1 2/1to3/1 3/1to2/1"/>
    </vehicle>
    <vehicle id="58" depart="290.00">
        <route edges="1/2to2/2 2/2to1/2 1/2to0/2 0/2to1/2 1/2to1/3 1/3to2/3 2/3to3/3 3/3to4/3 4/3to3/3 3/3to4/3 4/3to3/3 3/3to2/3 2/3to2/4 2/4to3/4 3/4to4/4 4/4to3/4 3/4to2/4 2/4to1/4 1/4to1/3 1/3to1/2 1/2to1/3 1/3to0/3 0/3to0/2 0/2to0/1 0/1to1/1 1/1to1/0 1/0to2/0 2/0to3/0 3/0to4/0 4/0to4/1 4/1to3/1 3/1to2/1 2/1to1/1 1/1to1/0 1/0to2/0 2/0to1/0"/>
    </vehicle>
    <vehicle id="59" depart="295.00">
        <route edges="3/2to3/1 3/1to2/1 2/1to1/1 1/1to0/1 0/1to0/2 0/2to0/3 0/3to0/4 0/4to1/4 1/4to1/3 1/3to2/3 2/3to3/3 3/3to3/4 3/4to3/3 3/3to3/2 3/2to3/1 3/1to4/1 4/1to3/1 3/1to2/1 2/1to1/1 1/1to0/1 0/1to0/2 0/2to0/1 0/1to0/2 0/2to0/3 0/3to1/3 1/3to2/3 2/3to1/3 1/3to0/3 0/3to0/2 0/2to0/1 0/1to1/1 1/1to1/0 1/0to0/0 0/0to0/1 0/1to1/1 1/1to2/1 2/1to3/1 3/1to4/1 4/1to3/1 3/1to2/1 2/1to1/1 1/1to1/2 1/2to1/1 1/1to1/2 1/2to1/3 1/3to1/4 1/4to2/4 2/4to3/4 3/4to4/4"/>
    </vehicle>
    <vehicle id="60" depart="300.00">
        <route edges="2/3to2/4 2/4to2/3 2/3to2/2 2/2to3/2 3/2to2/2 2/2to2/1 2/1to2/2 2/2to1/2 1/2to0/2 0/2to1/2 1/2to1/3 1/3to2/3 2/3to3/3 3/3to3/4 3/4to3/3 3/3to3/2 3/2to3/1 3/1to3/0 3/0to4/0 4/0to4/1 4/1to3/1 3/1to2/1 2/1to1/1 1/1to0/1 0/1to1/1 1/1to2/1 2/1to2/0 2/0to2/1 2/1to2/2 2/2to2/3 2/3to2/4 2/4to3/4 3/4to4/4 4/4to4/3 4/3to3/3 3/3to3/2 3/2to2/2 2/2to1/2 1/2to2/2"/>
    </vehicle>
    <vehicle id="61" depart="305.00">
        <route edges="3/2to3/3 3/3to2/3 2/3to1/3 1/3to0/3 0/3to0/2 0/2to0/1 0/1to0/0 0/0to1/0 1/0to1/1 1/1to2/1 2/1to3/1 3/1to4/1 4/1to4/0 4/0to3/0 3/0to2/0 2/0to1/0 1/0to1/1 1/1to0/1 0/1to0/2 0/2to0/3 0/3to0/2 0/2to0/3 0/3to1/3 1/3to1/4 1/4to2/4 2/4to3/4 3/4to4/4 4/4to3/4 3/4to3/3 3/3to3/2 3/2to3/1 3/1to2/1 2/1to1/1 1/1to1/2 1/2to1/3 1/3to0/3 0/3to1/3 1/3to0/3 0/3to0/4 0/4to0/3 0/3to1/3 1/3to1/2 1/2to1/1 1/1to2/1 2/1to3/1 3/1to4/1 4/1to3/1 3/1to3/2 3/2to4/2 4/2to4/3"/>
    </vehicle>
    <vehicle id="62" depart="310.00">
        <route edges="2/4to1/4 1/4to1/3 1/3to2/3 2/3to1/3 1/3to1/2 1/2to1/1 1/1to2/1 2/1to2/0 2/0to1/0 1/0to1/1 1/1to1/2 1/2to1/3 1/3to1/4 1/4to0/4 0/4to0/3 0/3to0/2 0/2to0/1 0/1to1/1 1/1to1/0 1/0to2/0 2/0to3/0 3/0to2/0 2/0to3/0 3/0to2/0 2/0to2/1 2/1to2/2 2/2to2/3 2/3to2/4 2/4to3/4 3/4to2/4 2/4to2/3 2/3to2/2 2/2to2/1 2/1to2/0 2/0to2/1 2/1to2/2 2/2to2/3 2/3to2/4 2/4to3/4 3/4to4/4 4/4to3/4 3/4to2/4 2/4to1/4 1/4to1/3 1/3to0/3 0/3to0/2 0/2to1/2 1/2to2/2 2/2to3/2 3/2to3/3"/>
    </vehicle>
    <vehicle id="63" depart="315.00">